18
prvni
O         -1.55300        1.75770       -0.57910
O         -1.88680       -1.43910        1.00960
O          3.09070       -0.69240       -1.07660
O         -2.55480       -0.71350       -1.04020
O          2.84820        0.19310        1.00290
C          0.13570        0.64930        0.72760
C         -1.36110        0.79930        0.44910
C          0.92300        0.07610       -0.45090
C         -2.01090       -0.50350        0.03460
C          2.36900       -0.12710       -0.07700
H          0.54950        1.63420        0.98090
H          0.27800        0.00970        1.60810
H         -1.87270        1.17140        1.34390
H          0.88070        0.75920       -1.30560
H          0.52020       -0.89770       -0.74740
H         -2.50860        1.92410       -0.65070
H         -2.29010       -2.29460        0.74930
H          4.03130       -0.81400       -0.82570
10
druha
O          0.25400        1.82820        0.10730
O          0.91040       -1.61330       -0.08350
O         -1.28850       -0.26480        1.29430
O          2.29280        0.19880        0.08000
O         -2.14100       -0.26920       -0.82580
C          0.03810        0.55410       -0.49290
C          1.18920       -0.38230       -0.12920
C         -1.25510       -0.05150        0.04980
H          0.00870        0.67750       -1.58060
H         -0.48980        2.39920       -0.15040
12
treti
O         -0.00030       -1.78590        0.46920
O         -1.40260        1.48130        0.13320
O          1.40360        1.48060        0.13410
O         -2.11090       -0.54380       -0.61510
O          2.11040       -0.54430       -0.61570
C          0.00000       -0.37190        0.57950
C         -1.27590        0.14220       -0.04240
C          1.27580        0.14190       -0.04270
H         -0.00960       -0.13070        1.64820
H          0.62430       -2.13190        1.12950
H         -2.23390        1.82490       -0.25830
H          2.23510        1.82400       -0.25690
